15
Step displaced_structure_16
O 1.388620 2.593900 1.883760
H 0.248340 0.718740 3.605840
C 0.424850 1.369480 4.058580
F 1.195810 1.321000 1.509600
C -0.018930 1.257380 0.955340
F 1.298200 0.383590 2.721640
H 2.081620 1.036820 0.563710
C 0.247940 -1.184940 1.887960
C 1.130750 -1.063710 2.295730
O 2.646620 0.646510 3.415610
H 3.651940 0.137170 2.755350
F 1.825920 -1.294820 1.644440
H 1.211470 -1.646340 3.079750
O 2.726270 1.263950 4.446200
F 1.812461 5.643710 -3.275967
